dset ^TCM_clim_ENS03_%y4-%m2-%d2_00:00.dat
options  byteswapped template
undef 1.e30
title  OUTPUT FROM WRF V3.5.1 MODEL
xdef 1483 levels 
 -269.9555
 -269.7126
 -269.4698
 -269.2269
 -268.9841
 -268.7412
 -268.4984
 -268.2556
 -268.0127
 -267.7698
 -267.5269
 -267.2841
 -267.0413
 -266.7984
 -266.5555
 -266.3127
 -266.0698
 -265.8270
 -265.5841
 -265.3412
 -265.0984
 -264.8556
 -264.6127
 -264.3698
 -264.1270
 -263.8842
 -263.6413
 -263.3984
 -263.1556
 -262.9127
 -262.6699
 -262.4270
 -262.1841
 -261.9413
 -261.6984
 -261.4556
 -261.2127
 -260.9699
 -260.7270
 -260.4842
 -260.2413
 -259.9985
 -259.7556
 -259.5128
 -259.2699
 -259.0270
 -258.7842
 -258.5413
 -258.2985
 -258.0556
 -257.8128
 -257.5699
 -257.3271
 -257.0842
 -256.8414
 -256.5985
 -256.3556
 -256.1128
 -255.8699
 -255.6271
 -255.3842
 -255.1414
 -254.8985
 -254.6556
 -254.4128
 -254.1699
 -253.9271
 -253.6842
 -253.4414
 -253.1985
 -252.9557
 -252.7128
 -252.4700
 -252.2271
 -251.9842
 -251.7414
 -251.4985
 -251.2557
 -251.0128
 -250.7700
 -250.5271
 -250.2843
 -250.0414
 -249.7986
 -249.5557
 -249.3129
 -249.0700
 -248.8271
 -248.5843
 -248.3414
 -248.0986
 -247.8557
 -247.6129
 -247.3700
 -247.1272
 -246.8843
 -246.6414
 -246.3986
 -246.1557
 -245.9129
 -245.6700
 -245.4272
 -245.1843
 -244.9415
 -244.6986
 -244.4557
 -244.2129
 -243.9700
 -243.7272
 -243.4843
 -243.2415
 -242.9986
 -242.7558
 -242.5129
 -242.2701
 -242.0272
 -241.7843
 -241.5415
 -241.2986
 -241.0558
 -240.8129
 -240.5701
 -240.3272
 -240.0844
 -239.8415
 -239.5986
 -239.3558
 -239.1129
 -238.8701
 -238.6272
 -238.3844
 -238.1415
 -237.8987
 -237.6558
 -237.4129
 -237.1701
 -236.9272
 -236.6844
 -236.4415
 -236.1987
 -235.9558
 -235.7130
 -235.4701
 -235.2273
 -234.9844
 -234.7415
 -234.4987
 -234.2558
 -234.0130
 -233.7701
 -233.5273
 -233.2844
 -233.0415
 -232.7987
 -232.5558
 -232.3130
 -232.0701
 -231.8273
 -231.5844
 -231.3416
 -231.0987
 -230.8559
 -230.6130
 -230.3701
 -230.1273
 -229.8844
 -229.6416
 -229.3987
 -229.1559
 -228.9130
 -228.6702
 -228.4273
 -228.1845
 -227.9416
 -227.6987
 -227.4559
 -227.2130
 -226.9702
 -226.7273
 -226.4845
 -226.2416
 -225.9988
 -225.7559
 -225.5131
 -225.2702
 -225.0273
 -224.7845
 -224.5416
 -224.2988
 -224.0559
 -223.8131
 -223.5702
 -223.3274
 -223.0845
 -222.8416
 -222.5988
 -222.3559
 -222.1131
 -221.8702
 -221.6274
 -221.3845
 -221.1417
 -220.8988
 -220.6560
 -220.4131
 -220.1702
 -219.9274
 -219.6845
 -219.4417
 -219.1988
 -218.9560
 -218.7131
 -218.4703
 -218.2274
 -217.9846
 -217.7417
 -217.4988
 -217.2560
 -217.0131
 -216.7703
 -216.5274
 -216.2846
 -216.0417
 -215.7989
 -215.5560
 -215.3131
 -215.0703
 -214.8274
 -214.5846
 -214.3417
 -214.0989
 -213.8560
 -213.6132
 -213.3703
 -213.1275
 -212.8846
 -212.6418
 -212.3989
 -212.1560
 -211.9132
 -211.6703
 -211.4275
 -211.1846
 -210.9418
 -210.6989
 -210.4561
 -210.2132
 -209.9703
 -209.7275
 -209.4846
 -209.2418
 -208.9989
 -208.7561
 -208.5132
 -208.2704
 -208.0275
 -207.7846
 -207.5418
 -207.2989
 -207.0561
 -206.8132
 -206.5704
 -206.3275
 -206.0847
 -205.8418
 -205.5989
 -205.3561
 -205.1132
 -204.8704
 -204.6275
 -204.3847
 -204.1418
 -203.8990
 -203.6561
 -203.4133
 -203.1704
 -202.9276
 -202.6847
 -202.4418
 -202.1990
 -201.9561
 -201.7133
 -201.4704
 -201.2276
 -200.9847
 -200.7419
 -200.4990
 -200.2561
 -200.0133
 -199.7704
 -199.5276
 -199.2847
 -199.0419
 -198.7990
 -198.5562
 -198.3133
 -198.0704
 -197.8276
 -197.5847
 -197.3419
 -197.0990
 -196.8562
 -196.6133
 -196.3705
 -196.1276
 -195.8848
 -195.6419
 -195.3990
 -195.1562
 -194.9133
 -194.6705
 -194.4276
 -194.1848
 -193.9419
 -193.6991
 -193.4562
 -193.2133
 -192.9705
 -192.7276
 -192.4848
 -192.2419
 -191.9991
 -191.7562
 -191.5134
 -191.2705
 -191.0276
 -190.7848
 -190.5419
 -190.2991
 -190.0562
 -189.8134
 -189.5705
 -189.3277
 -189.0848
 -188.8419
 -188.5991
 -188.3562
 -188.1134
 -187.8705
 -187.6277
 -187.3848
 -187.1420
 -186.8991
 -186.6563
 -186.4134
 -186.1706
 -185.9277
 -185.6848
 -185.4420
 -185.1991
 -184.9563
 -184.7134
 -184.4706
 -184.2277
 -183.9849
 -183.7420
 -183.4991
 -183.2563
 -183.0134
 -182.7706
 -182.5277
 -182.2849
 -182.0420
 -181.7992
 -181.5563
 -181.3134
 -181.0706
 -180.8278
 -180.5849
 -180.3420
 -180.0992
 -179.8563
 -179.6135
 -179.3706
 -179.1278
 -178.8849
 -178.6421
 -178.3992
 -178.1563
 -177.9135
 -177.6706
 -177.4278
 -177.1849
 -176.9421
 -176.6992
 -176.4564
 -176.2135
 -175.9706
 -175.7278
 -175.4849
 -175.2421
 -174.9992
 -174.7564
 -174.5135
 -174.2707
 -174.0278
 -173.7850
 -173.5421
 -173.2992
 -173.0564
 -172.8135
 -172.5707
 -172.3278
 -172.0850
 -171.8421
 -171.5993
 -171.3564
 -171.1136
 -170.8707
 -170.6278
 -170.3850
 -170.1421
 -169.8993
 -169.6564
 -169.4136
 -169.1707
 -168.9279
 -168.6850
 -168.4421
 -168.1993
 -167.9564
 -167.7136
 -167.4707
 -167.2279
 -166.9850
 -166.7422
 -166.4993
 -166.2564
 -166.0136
 -165.7707
 -165.5279
 -165.2850
 -165.0422
 -164.7993
 -164.5565
 -164.3136
 -164.0708
 -163.8279
 -163.5851
 -163.3422
 -163.0993
 -162.8565
 -162.6136
 -162.3708
 -162.1279
 -161.8851
 -161.6422
 -161.3994
 -161.1565
 -160.9136
 -160.6708
 -160.4279
 -160.1851
 -159.9422
 -159.6994
 -159.4565
 -159.2137
 -158.9708
 -158.7280
 -158.4851
 -158.2422
 -157.9994
 -157.7565
 -157.5137
 -157.2708
 -157.0280
 -156.7851
 -156.5423
 -156.2994
 -156.0565
 -155.8137
 -155.5708
 -155.3280
 -155.0851
 -154.8423
 -154.5994
 -154.3566
 -154.1137
 -153.8708
 -153.6280
 -153.3851
 -153.1423
 -152.8994
 -152.6566
 -152.4137
 -152.1709
 -151.9280
 -151.6852
 -151.4423
 -151.1994
 -150.9566
 -150.7137
 -150.4709
 -150.2280
 -149.9852
 -149.7423
 -149.4995
 -149.2566
 -149.0137
 -148.7709
 -148.5280
 -148.2852
 -148.0423
 -147.7995
 -147.5566
 -147.3138
 -147.0709
 -146.8281
 -146.5852
 -146.3423
 -146.0995
 -145.8566
 -145.6138
 -145.3709
 -145.1281
 -144.8852
 -144.6424
 -144.3995
 -144.1566
 -143.9138
 -143.6709
 -143.4281
 -143.1852
 -142.9424
 -142.6995
 -142.4567
 -142.2138
 -141.9709
 -141.7281
 -141.4852
 -141.2424
 -140.9995
 -140.7567
 -140.5138
 -140.2710
 -140.0281
 -139.7853
 -139.5424
 -139.2996
 -139.0567
 -138.8138
 -138.5710
 -138.3281
 -138.0853
 -137.8424
 -137.5996
 -137.3567
 -137.1139
 -136.8710
 -136.6281
 -136.3853
 -136.1424
 -135.8996
 -135.6567
 -135.4139
 -135.1710
 -134.9282
 -134.6853
 -134.4425
 -134.1996
 -133.9567
 -133.7139
 -133.4710
 -133.2282
 -132.9853
 -132.7425
 -132.4996
 -132.2568
 -132.0139
 -131.7710
 -131.5282
 -131.2853
 -131.0425
 -130.7996
 -130.5568
 -130.3139
 -130.0711
 -129.8282
 -129.5854
 -129.3425
 -129.0996
 -128.8568
 -128.6139
 -128.3711
 -128.1282
 -127.8854
 -127.6425
 -127.3997
 -127.1568
 -126.9140
 -126.6711
 -126.4282
 -126.1854
 -125.9425
 -125.6997
 -125.4568
 -125.2140
 -124.9711
 -124.7283
 -124.4854
 -124.2425
 -123.9997
 -123.7568
 -123.5140
 -123.2711
 -123.0283
 -122.7854
 -122.5426
 -122.2997
 -122.0569
 -121.8140
 -121.5711
 -121.3283
 -121.0854
 -120.8426
 -120.5997
 -120.3569
 -120.1140
 -119.8712
 -119.6283
 -119.3855
 -119.1426
 -118.8997
 -118.6569
 -118.4140
 -118.1712
 -117.9283
 -117.6855
 -117.4426
 -117.1998
 -116.9569
 -116.7140
 -116.4712
 -116.2283
 -115.9855
 -115.7426
 -115.4998
 -115.2569
 -115.0141
 -114.7712
 -114.5284
 -114.2855
 -114.0426
 -113.7998
 -113.5569
 -113.3141
 -113.0712
 -112.8284
 -112.5855
 -112.3427
 -112.0998
 -111.8569
 -111.6141
 -111.3712
 -111.1284
 -110.8855
 -110.6427
 -110.3998
 -110.1570
 -109.9141
 -109.6712
 -109.4284
 -109.1855
 -108.9427
 -108.6998
 -108.4570
 -108.2141
 -107.9713
 -107.7284
 -107.4856
 -107.2427
 -106.9998
 -106.7570
 -106.5141
 -106.2713
 -106.0284
 -105.7856
 -105.5427
 -105.2999
 -105.0570
 -104.8141
 -104.5713
 -104.3284
 -104.0856
 -103.8427
 -103.5999
 -103.3570
 -103.1142
 -102.8713
 -102.6285
 -102.3856
 -102.1427
 -101.8999
 -101.6570
 -101.4142
 -101.1713
 -100.9285
 -100.6856
 -100.4428
 -100.1999
  -99.9571
  -99.7142
  -99.4713
  -99.2285
  -98.9856
  -98.7428
  -98.4999
  -98.2571
  -98.0142
  -97.7714
  -97.5285
  -97.2856
  -97.0428
  -96.7999
  -96.5571
  -96.3142
  -96.0714
  -95.8285
  -95.5857
  -95.3428
  -95.1000
  -94.8571
  -94.6142
  -94.3714
  -94.1285
  -93.8857
  -93.6428
  -93.4000
  -93.1571
  -92.9143
  -92.6714
  -92.4286
  -92.1857
  -91.9428
  -91.7000
  -91.4571
  -91.2143
  -90.9714
  -90.7286
  -90.4857
  -90.2429
  -90.0000
  -89.7571
  -89.5143
  -89.2714
  -89.0286
  -88.7857
  -88.5429
  -88.3000
  -88.0572
  -87.8143
  -87.5714
  -87.3286
  -87.0857
  -86.8429
  -86.6000
  -86.3572
  -86.1143
  -85.8715
  -85.6286
  -85.3858
  -85.1429
  -84.9000
  -84.6572
  -84.4143
  -84.1715
  -83.9286
  -83.6858
  -83.4429
  -83.2001
  -82.9572
  -82.7144
  -82.4715
  -82.2286
  -81.9858
  -81.7429
  -81.5001
  -81.2572
  -81.0144
  -80.7715
  -80.5287
  -80.2858
  -80.0429
  -79.8001
  -79.5572
  -79.3144
  -79.0715
  -78.8287
  -78.5858
  -78.3430
  -78.1001
  -77.8573
  -77.6144
  -77.3715
  -77.1287
  -76.8858
  -76.6430
  -76.4001
  -76.1573
  -75.9144
  -75.6716
  -75.4287
  -75.1859
  -74.9430
  -74.7001
  -74.4573
  -74.2144
  -73.9716
  -73.7287
  -73.4859
  -73.2430
  -73.0002
  -72.7573
  -72.5144
  -72.2716
  -72.0287
  -71.7859
  -71.5430
  -71.3002
  -71.0573
  -70.8145
  -70.5716
  -70.3288
  -70.0859
  -69.8430
  -69.6002
  -69.3573
  -69.1145
  -68.8716
  -68.6288
  -68.3859
  -68.1431
  -67.9002
  -67.6573
  -67.4145
  -67.1716
  -66.9288
  -66.6859
  -66.4431
  -66.2002
  -65.9574
  -65.7145
  -65.4716
  -65.2288
  -64.9859
  -64.7431
  -64.5002
  -64.2574
  -64.0145
  -63.7717
  -63.5288
  -63.2860
  -63.0431
  -62.8002
  -62.5574
  -62.3145
  -62.0717
  -61.8288
  -61.5860
  -61.3431
  -61.1003
  -60.8574
  -60.6146
  -60.3717
  -60.1288
  -59.8860
  -59.6431
  -59.4003
  -59.1574
  -58.9146
  -58.6717
  -58.4289
  -58.1860
  -57.9431
  -57.7003
  -57.4574
  -57.2146
  -56.9717
  -56.7289
  -56.4860
  -56.2432
  -56.0003
  -55.7575
  -55.5146
  -55.2717
  -55.0289
  -54.7860
  -54.5432
  -54.3003
  -54.0575
  -53.8146
  -53.5718
  -53.3289
  -53.0860
  -52.8432
  -52.6003
  -52.3575
  -52.1146
  -51.8718
  -51.6289
  -51.3861
  -51.1432
  -50.9004
  -50.6575
  -50.4146
  -50.1718
  -49.9289
  -49.6861
  -49.4432
  -49.2004
  -48.9575
  -48.7147
  -48.4718
  -48.2290
  -47.9861
  -47.7432
  -47.5004
  -47.2575
  -47.0147
  -46.7718
  -46.5290
  -46.2861
  -46.0433
  -45.8004
  -45.5575
  -45.3147
  -45.0718
  -44.8290
  -44.5861
  -44.3433
  -44.1004
  -43.8576
  -43.6147
  -43.3719
  -43.1290
  -42.8861
  -42.6433
  -42.4004
  -42.1576
  -41.9147
  -41.6719
  -41.4290
  -41.1862
  -40.9433
  -40.7004
  -40.4576
  -40.2147
  -39.9719
  -39.7290
  -39.4862
  -39.2433
  -39.0005
  -38.7576
  -38.5148
  -38.2719
  -38.0290
  -37.7862
  -37.5433
  -37.3005
  -37.0576
  -36.8148
  -36.5719
  -36.3291
  -36.0862
  -35.8433
  -35.6005
  -35.3576
  -35.1148
  -34.8719
  -34.6291
  -34.3862
  -34.1434
  -33.9005
  -33.6577
  -33.4148
  -33.1719
  -32.9291
  -32.6862
  -32.4434
  -32.2005
  -31.9577
  -31.7148
  -31.4720
  -31.2291
  -30.9862
  -30.7434
  -30.5005
  -30.2577
  -30.0148
  -29.7720
  -29.5291
  -29.2863
  -29.0434
  -28.8006
  -28.5577
  -28.3148
  -28.0720
  -27.8291
  -27.5863
  -27.3434
  -27.1006
  -26.8577
  -26.6149
  -26.3720
  -26.1292
  -25.8863
  -25.6434
  -25.4006
  -25.1577
  -24.9149
  -24.6720
  -24.4292
  -24.1863
  -23.9435
  -23.7006
  -23.4577
  -23.2149
  -22.9720
  -22.7292
  -22.4863
  -22.2435
  -22.0006
  -21.7578
  -21.5149
  -21.2720
  -21.0292
  -20.7863
  -20.5435
  -20.3006
  -20.0578
  -19.8149
  -19.5721
  -19.3292
  -19.0864
  -18.8435
  -18.6006
  -18.3578
  -18.1149
  -17.8721
  -17.6292
  -17.3864
  -17.1435
  -16.9007
  -16.6578
  -16.4149
  -16.1721
  -15.9292
  -15.6864
  -15.4435
  -15.2007
  -14.9578
  -14.7150
  -14.4721
  -14.2293
  -13.9864
  -13.7436
  -13.5007
  -13.2578
  -13.0150
  -12.7721
  -12.5293
  -12.2864
  -12.0436
  -11.8007
  -11.5579
  -11.3150
  -11.0721
  -10.8293
  -10.5864
  -10.3436
  -10.1007
   -9.8579
   -9.6150
   -9.3722
   -9.1293
   -8.8865
   -8.6436
   -8.4007
   -8.1579
   -7.9150
   -7.6722
   -7.4293
   -7.1865
   -6.9436
   -6.7008
   -6.4579
   -6.2150
   -5.9722
   -5.7293
   -5.4865
   -5.2436
   -5.0008
   -4.7579
   -4.5151
   -4.2722
   -4.0294
   -3.7865
   -3.5436
   -3.3008
   -3.0579
   -2.8151
   -2.5722
   -2.3294
   -2.0865
   -1.8437
   -1.6008
   -1.3579
   -1.1151
   -0.8722
   -0.6294
   -0.3865
   -0.1437
    0.0992
    0.3420
    0.5849
    0.8278
    1.0706
    1.3135
    1.5563
    1.7992
    2.0420
    2.2849
    2.5277
    2.7706
    3.0134
    3.2563
    3.4991
    3.7420
    3.9849
    4.2277
    4.4706
    4.7134
    4.9563
    5.1991
    5.4420
    5.6848
    5.9277
    6.1706
    6.4134
    6.6563
    6.8991
    7.1420
    7.3848
    7.6277
    7.8705
    8.1134
    8.3562
    8.5991
    8.8420
    9.0848
    9.3277
    9.5705
    9.8134
   10.0562
   10.2991
   10.5419
   10.7848
   11.0277
   11.2705
   11.5134
   11.7562
   11.9991
   12.2419
   12.4848
   12.7276
   12.9705
   13.2133
   13.4562
   13.6991
   13.9419
   14.1848
   14.4276
   14.6705
   14.9133
   15.1562
   15.3990
   15.6419
   15.8848
   16.1276
   16.3705
   16.6133
   16.8562
   17.0990
   17.3419
   17.5847
   17.8276
   18.0704
   18.3133
   18.5562
   18.7990
   19.0419
   19.2847
   19.5276
   19.7704
   20.0133
   20.2561
   20.4990
   20.7419
   20.9847
   21.2276
   21.4704
   21.7133
   21.9561
   22.1990
   22.4418
   22.6847
   22.9275
   23.1704
   23.4133
   23.6561
   23.8990
   24.1418
   24.3847
   24.6275
   24.8704
   25.1132
   25.3561
   25.5989
   25.8418
   26.0847
   26.3275
   26.5704
   26.8132
   27.0561
   27.2989
   27.5418
   27.7846
   28.0275
   28.2704
   28.5132
   28.7561
   28.9989
   29.2418
   29.4846
   29.7275
   29.9703
   30.2132
   30.4560
   30.6989
   30.9418
   31.1846
   31.4275
   31.6703
   31.9132
   32.1560
   32.3989
   32.6417
   32.8846
   33.1275
   33.3703
   33.6132
   33.8560
   34.0989
   34.3417
   34.5846
   34.8274
   35.0703
   35.3131
   35.5560
   35.7989
   36.0417
   36.2846
   36.5274
   36.7703
   37.0131
   37.2560
   37.4988
   37.7417
   37.9846
   38.2274
   38.4703
   38.7131
   38.9560
   39.1988
   39.4417
   39.6845
   39.9274
   40.1702
   40.4131
   40.6560
   40.8988
   41.1417
   41.3845
   41.6274
   41.8702
   42.1131
   42.3559
   42.5988
   42.8416
   43.0845
   43.3274
   43.5702
   43.8131
   44.0559
   44.2988
   44.5416
   44.7845
   45.0273
   45.2702
   45.5131
   45.7559
   45.9988
   46.2416
   46.4845
   46.7273
   46.9702
   47.2130
   47.4559
   47.6987
   47.9416
   48.1845
   48.4273
   48.6702
   48.9130
   49.1559
   49.3987
   49.6416
   49.8844
   50.1273
   50.3701
   50.6130
   50.8559
   51.0987
   51.3416
   51.5844
   51.8273
   52.0701
   52.3130
   52.5558
   52.7987
   53.0415
   53.2844
   53.5273
   53.7701
   54.0130
   54.2558
   54.4987
   54.7415
   54.9844
   55.2273
   55.4701
   55.7130
   55.9558
   56.1987
   56.4415
   56.6844
   56.9272
   57.1701
   57.4129
   57.6558
   57.8987
   58.1415
   58.3844
   58.6272
   58.8701
   59.1129
   59.3558
   59.5986
   59.8415
   60.0844
   60.3272
   60.5701
   60.8129
   61.0558
   61.2986
   61.5415
   61.7843
   62.0272
   62.2701
   62.5129
   62.7558
   62.9986
   63.2415
   63.4843
   63.7272
   63.9700
   64.2129
   64.4557
   64.6986
   64.9415
   65.1843
   65.4272
   65.6700
   65.9129
   66.1557
   66.3986
   66.6414
   66.8843
   67.1272
   67.3700
   67.6129
   67.8557
   68.0986
   68.3414
   68.5843
   68.8271
   69.0700
   69.3129
   69.5557
   69.7986
   70.0414
   70.2843
   70.5271
   70.7700
   71.0128
   71.2557
   71.4985
   71.7414
   71.9842
   72.2271
   72.4700
   72.7128
   72.9557
   73.1985
   73.4414
   73.6842
   73.9271
   74.1699
   74.4128
   74.6556
   74.8985
   75.1414
   75.3842
   75.6271
   75.8699
   76.1128
   76.3556
   76.5985
   76.8414
   77.0842
   77.3271
   77.5699
   77.8128
   78.0556
   78.2985
   78.5413
   78.7842
   79.0270
   79.2699
   79.5128
   79.7556
   79.9985
   80.2413
   80.4842
   80.7270
   80.9699
   81.2127
   81.4556
   81.6984
   81.9413
   82.1842
   82.4270
   82.6699
   82.9127
   83.1556
   83.3984
   83.6413
   83.8841
   84.1270
   84.3698
   84.6127
   84.8556
   85.0984
   85.3413
   85.5841
   85.8270
   86.0698
   86.3127
   86.5555
   86.7984
   87.0412
   87.2841
   87.5269
   87.7698
   88.0127
   88.2555
   88.4984
   88.7412
   88.9841
   89.2269
   89.4698
   89.7127
   89.9555
ydef  376 levels 
  -30.81877    
  -30.60998    
  -30.40074    
  -30.19105    
  -29.98092    
  -29.77034    
  -29.55931    
  -29.34785    
  -29.13594    
  -28.92359    
  -28.71082    
  -28.49760    
  -28.28395    
  -28.06988    
  -27.85538    
  -27.64045    
  -27.42509    
  -27.20932    
  -26.99313    
  -26.77653    
  -26.55951    
  -26.34208    
  -26.12424    
  -25.90598    
  -25.68734    
  -25.46828    
  -25.24883    
  -25.02898    
  -24.80873    
  -24.58809    
  -24.36707    
  -24.14565    
  -23.92385    
  -23.70168    
  -23.47910    
  -23.25617    
  -23.03286    
  -22.80919    
  -22.58514    
  -22.36073    
  -22.13595    
  -21.91082    
  -21.68533    
  -21.45948    
  -21.23329    
  -21.00674    
  -20.77986    
  -20.55264    
  -20.32507    
  -20.09716    
  -19.86893    
  -19.64037    
  -19.41148    
  -19.18227    
  -18.95274    
  -18.72289    
  -18.49274    
  -18.26227    
  -18.03149    
  -17.80041    
  -17.56904    
  -17.33736    
  -17.10539    
  -16.87314    
  -16.64059    
  -16.40777    
  -16.17467    
  -15.94128    
  -15.70763    
  -15.47372    
  -15.23953    
  -15.00509    
  -14.77039    
  -14.53543    
  -14.30022    
  -14.06477    
  -13.82907    
  -13.59315    
  -13.35697    
  -13.12057    
  -12.88393    
  -12.64709    
  -12.41002    
  -12.17273    
  -11.93523    
  -11.69752    
  -11.45960    
  -11.22150    
  -10.98318    
  -10.74468    
  -10.50600    
  -10.26711    
  -10.02807    
  -9.788834    
  -9.549423    
  -9.309853    
  -9.070114    
  -8.830215    
  -8.590164    
  -8.349953    
  -8.109604    
  -7.869102    
  -7.628471    
  -7.387695    
  -7.146790    
  -6.905762    
  -6.664604    
  -6.423340    
  -6.181946    
  -5.940453    
  -5.698853    
  -5.457146    
  -5.215340    
  -4.973442    
  -4.731461    
  -4.489388    
  -4.247238    
  -4.005020    
  -3.762718    
  -3.520355    
  -3.277931    
  -3.035439    
  -2.792900    
  -2.550308    
  -2.307678    
  -2.064995    
  -1.822281    
  -1.579529    
  -1.336754    
  -1.093956    
 -0.8511429    
 -0.6082993    
 -0.3654556    
 -0.1226044    
  0.1202469    
  0.3631058    
  0.6059494    
  0.8487854    
   1.091606    
   1.334404    
   1.577187    
   1.819931    
   2.062645    
   2.305321    
   2.547958    
   2.790550    
   3.033096    
   3.275581    
   3.518013    
   3.760376    
   4.002670    
   4.244896    
   4.487053    
   4.729111    
   4.971100    
   5.213005    
   5.454796    
   5.696503    
   5.938110    
   6.179611    
   6.420998    
   6.662270    
   6.903427    
   7.144455    
   7.385368    
   7.626137    
   7.866776    
   8.107277    
   8.347626    
   8.587837    
   8.827888    
   9.067787    
   9.307533    
   9.547104    
   9.786514    
   10.02575    
   10.26480    
   10.50368    
   10.74238    
   10.98088    
   11.21919    
   11.45731    
   11.69522    
   11.93293    
   12.17043    
   12.40771    
   12.64479    
   12.88165    
   13.11828    
   13.35468    
   13.59086    
   13.82679    
   14.06249    
   14.29794    
   14.53315    
   14.76811    
   15.00282    
   15.23726    
   15.47145    
   15.70538    
   15.93902    
   16.17241    
   16.40552    
   16.63834    
   16.87089    
   17.10314    
   17.33511    
   17.56680    
   17.79817    
   18.02925    
   18.26003    
   18.49051    
   18.72067    
   18.95052    
   19.18005    
   19.40926    
   19.63815    
   19.86672    
   20.09496    
   20.32286    
   20.55043    
   20.77766    
   21.00455    
   21.23109    
   21.45730    
   21.68314    
   21.90863    
   22.13377    
   22.35855    
   22.58296    
   22.80701    
   23.03070    
   23.25401    
   23.47695    
   23.69951    
   23.92170    
   24.14350    
   24.36492    
   24.58595    
   24.80659    
   25.02684    
   25.24670    
   25.46616    
   25.68522    
   25.90388    
   26.12213    
   26.33997    
   26.55740    
   26.77443    
   26.99104    
   27.20723    
   27.42300    
   27.63837    
   27.85329    
   28.06780    
   28.28188    
   28.49554    
   28.70875    
   28.92154    
   29.13389    
   29.34580    
   29.55727    
   29.76829    
   29.97887    
   30.18902    
   30.39871    
   30.60795    
   30.81675    
   31.02509    
   31.23297    
   31.44040    
   31.64737    
   31.85387    
   32.05993    
   32.26552    
   32.47064    
   32.67529    
   32.87948    
   33.08320    
   33.28645    
   33.48923    
   33.69152    
   33.89336    
   34.09470    
   34.29557    
   34.49597    
   34.69588    
   34.89530    
   35.09425    
   35.29271    
   35.49069    
   35.68819    
   35.88519    
   36.08170    
   36.27773    
   36.47327    
   36.66831    
   36.86286    
   37.05691    
   37.25047    
   37.44353    
   37.63611    
   37.82817    
   38.01974    
   38.21082    
   38.40138    
   38.59146    
   38.78102    
   38.97008    
   39.15863    
   39.34669    
   39.53426    
   39.72130    
   39.90784    
   40.09389    
   40.27940    
   40.46443    
   40.64894    
   40.83293    
   41.01643    
   41.19942    
   41.38190    
   41.56386    
   41.74532    
   41.92625    
   42.10669    
   42.28661    
   42.46600    
   42.64490    
   42.82327    
   43.00114    
   43.17850    
   43.35533    
   43.53165    
   43.70747    
   43.88277    
   44.05756    
   44.23181    
   44.40558    
   44.57881    
   44.75154    
   44.92375    
   45.09544    
   45.26663    
   45.43729    
   45.60744    
   45.77708    
   45.94621    
   46.11482    
   46.28291    
   46.45049    
   46.61754    
   46.78409    
   46.95013    
   47.11566    
   47.28067    
   47.44518    
   47.60915    
   47.77263    
   47.93559    
   48.09804    
   48.25998    
   48.42140    
   48.58232    
   48.74272    
   48.90262    
   49.06200    
   49.22087    
   49.37924    
   49.53709    
   49.69444    
   49.85129    
   50.00761    
   50.16344    
   50.31876    
   50.47357    
zdef   16 levels  
1000.00000
 975.00000
 950.00000
 925.00000
 900.00000
 850.00000
 800.00000
 700.00000
 600.00000
 500.00000
 400.00000
 300.00000
 250.00000
 200.00000
 150.00000
 100.00000
tdef  737 linear 00Z01JUN1989     360MN      
VARS   39
U             16  0  x-wind component (m s-1)
V             16  0  y-wind component (m s-1)
W             16  0  z-wind component (m s-1)
WW            16  0  mu-coupled eta-dot (Pa s-1)
Q2             1  0  QV at 2 M (kg kg-1)
T2             1  0  TEMP at 2 M (K)
PSFC           1  0  SFC PRESSURE (Pa)
U10            1  0  U at 10 M (m s-1)
V10            1  0  V at 10 M (m s-1)
QVAPOR        16  0  Water vapor mixing ratio (kg kg-1)
QCLOUD        16  0  Cloud water mixing ratio (kg kg-1)
TSLB           4  0  SOIL TEMPERATURE (K)
SMOIS          4  0  SOIL MOISTURE (m3 m-3)
SNOW           1  0  SNOW WATER EQUIVALENT (kg m-2)
TSK            1  0  SURFACE SKIN TEMPERATURE (K)
RAINC          1  0  ACCUMULATED TOTAL CUMULUS PRECIPITATION (mm)
RAINNC         1  0  ACCUMULATED TOTAL GRID SCALE PRECIPITATION (mm)
SNOWNC         1  0  ACCUMULATED TOTAL GRID SCALE SNOW AND ICE (mm)
GRAUPELNC      1  0  ACCUMULATED TOTAL GRID SCALE GRAUPEL (mm)
HAILNC         1  0  ACCUMULATED TOTAL GRID SCALE HAIL (mm)
ACSWUPT        1  0  ACCUMULATED UPWELLING SHORTWAVE FLUX AT TOP (J m-2)
ACSWDNT        1  0  ACCUMULATED DOWNWELLING SHORTWAVE FLUX AT TOP (J m-2)
ACSWUPB        1  0  ACCUMULATED UPWELLING SHORTWAVE FLUX AT BOTTOM (J m-2)
ACSWDNB        1  0  ACCUMULATED DOWNWELLING SHORTWAVE FLUX AT BOTTOM (J m-2)
ACLWUPT        1  0  ACCUMULATED UPWELLING LONGWAVE FLUX AT TOP (J m-2)
ACLWDNT        1  0  ACCUMULATED DOWNWELLING LONGWAVE FLUX AT TOP (J m-2)
ACLWUPB        1  0  ACCUMULATED UPWELLING LONGWAVE FLUX AT BOTTOM (J m-2)
ACLWDNB        1  0  ACCUMULATED DOWNWELLING LONGWAVE FLUX AT BOTTOM (J m-2)
OLR            1  0  TOA OUTGOING LONG WAVE (W m-2)
XLAND          1  0  LAND MASK (1 FOR LAND, 2 FOR WATER) (-)
PBLH           1  0  PBL HEIGHT (m)
QFX            1  0  UPWARD MOISTURE FLUX AT THE SURFACE (kg m-2 s-1)
ACHFX          1  0  ACCUMULATED UPWARD HEAT FLUX AT THE SURFACE (J m-2)
ACLHF          1  0  ACCUMULATED UPWARD LATENT HEAT FLUX AT THE SURFACE (J m-2)
SST            1  0  SEA SURFACE TEMPERATURE (K)
height        16  0  Model height (km)
tk            16  0  Temperature (K)
rh            16  0  Relative Humidity (%)
slp            1  0  Sea Levelp Pressure (hPa)
ENDVARS
